<?xml version="1.0" encoding="UTF-8"?>

<!-- generated on Friday 05 March 2021 02:42:49 PM by Eclipse SUMO netedit Version 1.4.0
<configuration xmlns:xsi="http://www.w3.org/2001/XMLSchema-instance" xsi:noNamespaceSchemaLocation="http://sumo.dlr.de/xsd/netconvertConfiguration.xsd">

    <input>
        <sumo-net-file value="/home/aadreesh/omnetpp-5.6.2/samples/Tutorial/autobahn.net.xml"/>
    </input>

    <output>
        <output-file value="/home/aadreesh/omnetpp-5.6.2/samples/Tutorial/autobahn.net.xml"/>
    </output>

    <processing>
        <geometry.min-radius.fix.railways value="false"/>
        <geometry.max-grade.fix value="false"/>
        <offset.disable-normalization value="true"/>
        <lefthand value="false"/>
    </processing>

    <junctions>
        <no-turnarounds value="true"/>
        <junctions.corner-detail value="5"/>
        <junctions.limit-turn-speed value="5.5"/>
        <rectangular-lane-cut value="false"/>
    </junctions>

    <pedestrian>
        <walkingareas value="false"/>
    </pedestrian>

    <report>
        <aggregate-warnings value="5"/>
    </report>

</configuration>
-->

<net version="1.3" junctionCornerDetail="5" limitTurnSpeed="5.50" xmlns:xsi="http://www.w3.org/2001/XMLSchema-instance" xsi:noNamespaceSchemaLocation="http://sumo.dlr.de/xsd/net_file.xsd">

    <location netOffset="0.00,0.00" convBoundary="0.00,0.00,2000.00,80.00" origBoundary="-10000000000.00,-10000000000.00,10000000000.00,10000000000.00" projParameter="!"/>

    <edge id=":gneJ3_0" function="internal">
        <lane id=":gneJ3_0_0" index="0" speed="6.51" length="9.03" shape="298.40,4.00 298.75,1.55 299.80,-0.20 301.55,-1.25 304.00,-1.60"/>
    </edge>
    <edge id=":gneJ3_1" function="internal">
        <lane id=":gneJ3_1_0" index="0" speed="50.00" length="11.20" shape="292.80,-4.80 304.00,-4.80"/>
        <lane id=":gneJ3_1_1" index="1" speed="50.00" length="11.20" shape="292.80,-1.60 304.00,-1.60"/>
    </edge>
    <edge id=":gneJ4_0" function="internal">
        <lane id=":gneJ4_0_0" index="0" speed="50.00" length="11.20" shape="146.00,-4.80 157.20,-4.80"/>
        <lane id=":gneJ4_0_1" index="1" speed="50.00" length="11.20" shape="146.00,-1.60 157.20,-1.60"/>
    </edge>
    <edge id=":gneJ4_2" function="internal">
        <lane id=":gneJ4_2_0" index="0" speed="6.51" length="9.03" shape="146.00,-1.60 148.45,-1.25 150.20,-0.20 151.25,1.55 151.60,4.00"/>
    </edge>

    <edge id="entry" from="gneJ0" to="gneJ4" priority="-1">
        <lane id="entry_0" index="0" speed="50.00" length="146.00" shape="0.00,-4.80 146.00,-4.80"/>
        <lane id="entry_1" index="1" speed="50.00" length="146.00" shape="0.00,-1.60 146.00,-1.60"/>
    </edge>
    <edge id="entry1" from="gneJ4" to="gneJ9" priority="-1">
        <lane id="entry1_0" index="0" speed="13.89" length="76.00" shape="151.60,4.00 151.60,80.00"/>
    </edge>
    <edge id="entry2" from="gneJ4" to="gneJ3" priority="-1">
        <lane id="entry2_0" index="0" speed="50.00" length="135.60" shape="157.20,-4.80 292.80,-4.80"/>
        <lane id="entry2_1" index="1" speed="50.00" length="135.60" shape="157.20,-1.60 292.80,-1.60"/>
    </edge>
    <edge id="entry3" from="gneJ2" to="gneJ3" priority="-1">
        <lane id="entry3_0" index="0" speed="13.89" length="76.00" shape="298.40,80.00 298.40,4.00"/>
    </edge>
    <edge id="exit" from="gneJ3" to="gneJ1" priority="-1">
        <lane id="exit_0" index="0" speed="50.00" length="1696.00" shape="304.00,-4.80 2000.00,-4.80"/>
        <lane id="exit_1" index="1" speed="50.00" length="1696.00" shape="304.00,-1.60 2000.00,-1.60"/>
    </edge>

    <junction id="gneJ0" type="dead_end" x="0.00" y="0.00" incLanes="" intLanes="" shape="0.00,0.00 0.00,-6.40"/>
    <junction id="gneJ1" type="dead_end" x="2000.00" y="0.00" incLanes="exit_0 exit_1" intLanes="" shape="2000.00,-6.40 2000.00,0.00"/>
    <junction id="gneJ2" type="dead_end" x="300.00" y="80.00" incLanes="" intLanes="" shape="300.00,80.00 296.80,80.00"/>
    <junction id="gneJ3" type="priority" x="300.00" y="0.00" incLanes="entry3_0 entry2_0 entry2_1" intLanes=":gneJ3_0_0 :gneJ3_1_0 :gneJ3_1_1" shape="296.80,4.00 300.00,4.00 300.44,1.78 301.00,1.00 301.78,0.44 302.78,0.11 304.00,0.00 304.00,-6.40 292.80,-6.40 292.80,0.00 295.02,0.44 295.80,1.00 296.36,1.78 296.69,2.78">
        <request index="0" response="110" foes="110" cont="0"/>
        <request index="1" response="000" foes="001" cont="0"/>
        <request index="2" response="000" foes="001" cont="0"/>
    </junction>
    <junction id="gneJ4" type="priority" x="150.00" y="0.00" incLanes="entry_0 entry_1" intLanes=":gneJ4_0_0 :gneJ4_0_1 :gneJ4_2_0" shape="150.00,4.00 153.20,4.00 153.64,1.78 154.20,1.00 154.98,0.44 155.98,0.11 157.20,0.00 157.20,-6.40 146.00,-6.40 146.00,0.00 148.22,0.44 149.00,1.00 149.56,1.78 149.89,2.78">
        <request index="0" response="000" foes="000" cont="0"/>
        <request index="1" response="000" foes="000" cont="0"/>
        <request index="2" response="000" foes="000" cont="0"/>
    </junction>
    <junction id="gneJ9" type="dead_end" x="150.00" y="80.00" incLanes="entry1_0" intLanes="" shape="153.20,80.00 150.00,80.00"/>

    <connection from="entry" to="entry2" fromLane="0" toLane="0" via=":gneJ4_0_0" dir="s" state="M"/>
    <connection from="entry" to="entry2" fromLane="1" toLane="1" via=":gneJ4_0_1" dir="s" state="M"/>
    <connection from="entry" to="entry1" fromLane="1" toLane="0" via=":gneJ4_2_0" dir="l" state="M"/>
    <connection from="entry2" to="exit" fromLane="0" toLane="0" via=":gneJ3_1_0" dir="s" state="M"/>
    <connection from="entry2" to="exit" fromLane="1" toLane="1" via=":gneJ3_1_1" dir="s" state="M"/>
    <connection from="entry3" to="exit" fromLane="0" toLane="1" via=":gneJ3_0_0" dir="l" state="m"/>

    <connection from=":gneJ3_0" to="exit" fromLane="0" toLane="1" dir="l" state="M"/>
    <connection from=":gneJ3_1" to="exit" fromLane="0" toLane="0" dir="s" state="M"/>
    <connection from=":gneJ3_1" to="exit" fromLane="1" toLane="1" dir="s" state="M"/>
    <connection from=":gneJ4_0" to="entry2" fromLane="0" toLane="0" dir="s" state="M"/>
    <connection from=":gneJ4_0" to="entry2" fromLane="1" toLane="1" dir="s" state="M"/>
    <connection from=":gneJ4_2" to="entry1" fromLane="0" toLane="0" dir="l" state="M"/>

</net>
